20

N         -0.70146       -1.21041        0.05981
C         -1.40947       -0.04966        0.03570
C         -0.73107        1.17826        0.06459
C          0.66051        1.22692       -0.00267
C          1.37237        0.04687       -0.01631
C          0.65746       -1.13662        0.05787
C         -2.90390       -0.11263       -0.12831
N         -3.50292       -1.32833       -0.23877
C         -4.83136       -1.36820       -0.53219
C         -5.60843       -0.24807       -0.77508
C         -5.01459        0.98698       -0.63027
C         -3.67060        1.05453       -0.26612
H         -1.25489        2.12136        0.11089
H          1.16407        2.18862       -0.04841
H          2.45667        0.05087       -0.06733
H          1.17706       -2.08790        0.11855
H         -5.27209       -2.35957       -0.56974
H         -6.65380       -0.33424       -1.05474
H         -5.57299        1.90361       -0.79947
H         -3.24778        2.03785       -0.12496
